<?xml version="1.0" encoding="UTF-8"?>
<!DOCTYPE network SYSTEM "http://www.matsim.org/files/dtd/network_v2.dtd">
<network>
    <nodes>
        <node id="n01" x="-10700.0" y="0.0"/>
        <node id="n02" x="-1130.0" y="0.0"/>
        <node id="n03" x="-550.0" y="0.0"/>
        <node id="n04" x="-510.0" y="0.0"/>
        <node id="n05_1" x="-470.0" y="0.0"/>
        <node id="n05_2" x="-470.0" y="50.0"/>
        <node id="n06_1" x="0.0" y="0.0"/>
        <node id="n06_2" x="0.0" y="50.0"/>
        <node id="n07" x="40.0" y="0.0"/>
        <node id="n08" x="80.0" y="0.0"/>
        <node id="n09" x="580.0" y="0.0"/>
        <node id="n10" x="10230.0" y="0.0"/>
        <node id="n11" x="10730.0" y="0.0"/>
        <node id="n_newer_1" x="-630.0" y="-0.0"/>
        <node id="n_newer_0" x="-630.0" y="-50.0"/>
        <node id="n_new_1" x="-590.0" y="-0.0"/>
        <node id="n_new_0" x="-590.0" y="-50.0"/>
        <node id="n01_0" x="-10700.0" y="-50.0"/>
        <node id="n02_0" x="-1130.0" y="-50.0"/>
        <node id="n03_0" x="-550.0" y="-50.0"/>
        <node id="n04_0" x="-510.0" y="-50.0"/>
        <node id="n05_0" x="-470.0" y="-50.0"/>
        <node id="n06_0" x="0.0" y="-50.0"/>
        <node id="n07_0" x="40.0" y="-50.0"/>
        <node id="n08_0" x="80.0" y="-50.0"/>
        <node id="n09_0" x="580.0" y="-50.0"/>
        <node id="n10_0" x="10230.0" y="-50.0"/>
        <node id="n11_0" x="10730.0" y="-50.0"/>
    </nodes>
    <links capperiod="01:00:00" effectivecellsize="7.5" effectivelanewidth="3.75">
        <link id="f01" from="n01" to="n02" length="9650.0" freespeed="44.444" capacity="9999.0" permlanes="1.0"
              modes="rail" oneway="1">
            <attributes>
                <attribute name="railsimTrainCapacity" class="java.lang.Integer">999</attribute>
            </attributes>
        </link>
        <link id="f01_0" from="n02_0" to="n01_0" length="9650.0" freespeed="44.444" capacity="9999.0" permlanes="1.0"
              modes="rail" oneway="1">
            <attributes>
                <attribute name="railsimTrainCapacity" class="java.lang.Integer">999</attribute>
            </attributes>
        </link>
        <link id="f02" from="n02" to="n_newer_1" length="500.0" freespeed="44.444" capacity="9999.0" permlanes="1.0"
              modes="rail" oneway="1">
            <attributes>
                <attribute name="railsimResourceId" class="java.lang.String">block_1_f</attribute>
                <attribute name="railsimTrainCapacity" class="java.lang.Integer">1</attribute>
                <attribute name="railsimMinimumTime" class="java.lang.Double">20.0</attribute>
                <attribute name="railsimResourceType" class="java.lang.String">fixedBlock</attribute>
            </attributes>
        </link>
        <link id="f02_0" from="n_newer_0" to="n02_0" length="500.0" freespeed="44.444" capacity="9999.0" permlanes="1.0"
              modes="rail" oneway="1">
            <attributes>
                <attribute name="railsimResourceId" class="java.lang.String">block_2_r</attribute>
                <attribute name="railsimTrainCapacity" class="java.lang.Integer">1</attribute>
                <attribute name="railsimMinimumTime" class="java.lang.Double">20.0</attribute>
                <attribute name="railsimResourceType" class="java.lang.String">fixedBlock</attribute>
            </attributes>
        </link>
        <link id="switch_new_1" from="n_new_1" to="n03" length="40.0" freespeed="44.444" capacity="9999.0"
              permlanes="1.0" modes="rail" oneway="1">
            <attributes>
                <attribute name="railsimTrainCapacity" class="java.lang.Integer">1</attribute>
                <attribute name="railsimNonBlockingArea" class="java.lang.Boolean">true</attribute>
                <attribute name="railsimEntry" class="java.lang.Boolean">false</attribute>
                <attribute name="railsimMinimumTime" class="java.lang.Double">20.0</attribute>
                <attribute name="railsimResourceType" class="java.lang.String">fixedBlock</attribute>
            </attributes>
        </link>
        <link id="switch_newer_1" from="n_newer_1" to="n_new_1" length="40.0" freespeed="44.444" capacity="9999.0"
              permlanes="1.0" modes="rail" oneway="1">
            <attributes>
                <attribute name="railsimTrainCapacity" class="java.lang.Integer">1</attribute>
                <attribute name="railsimNonBlockingArea" class="java.lang.Boolean">true</attribute>
                <attribute name="railsimEntry" class="java.lang.Boolean">true</attribute>
                <attribute name="railsimMinimumTime" class="java.lang.Double">20.0</attribute>
                <attribute name="railsimResourceType" class="java.lang.String">fixedBlock</attribute>
            </attributes>
        </link>
        <link id="switch_new_0" from="n03_0" to="n_new_0" length="40.0" freespeed="44.444" capacity="9999.0"
              permlanes="1.0" modes="rail" oneway="1">
            <attributes>
                <attribute name="railsimResourceId" class="java.lang.String">switch_1</attribute>
                <attribute name="railsimTrainCapacity" class="java.lang.Integer">1</attribute>
                <attribute name="railsimNonBlockingArea" class="java.lang.Boolean">true</attribute>
                <attribute name="railsimEntry" class="java.lang.Boolean">false</attribute>
                <attribute name="railsimMinimumTime" class="java.lang.Double">20.0</attribute>
                <attribute name="railsimResourceType" class="java.lang.String">fixedBlock</attribute>
            </attributes>
        </link>
        <link id="switch_newer_0" from="n_new_0" to="n_newer_0" length="40.0" freespeed="44.444" capacity="9999.0"
              permlanes="1.0" modes="rail" oneway="1">
            <attributes>
                <attribute name="railsimResourceId" class="java.lang.String">switch_1</attribute>
                <attribute name="railsimTrainCapacity" class="java.lang.Integer">1</attribute>
                <attribute name="railsimNonBlockingArea" class="java.lang.Boolean">true</attribute>
                <attribute name="railsimEntry" class="java.lang.Boolean">false</attribute>
                <attribute name="railsimMinimumTime" class="java.lang.Double">20.0</attribute>
                <attribute name="railsimResourceType" class="java.lang.String">fixedBlock</attribute>
            </attributes>
        </link>
        <link id="f03" from="n03" to="n04" length="40.0" freespeed="44.444" capacity="9999.0" permlanes="1.0"
              modes="rail" oneway="1">
            <attributes>
                <attribute name="railsimResourceId" class="java.lang.String">switch_2</attribute>
                <attribute name="railsimTrainCapacity" class="java.lang.Integer">1</attribute>
                <attribute name="railsimNonBlockingArea" class="java.lang.Boolean">true</attribute>
                <attribute name="railsimEntry" class="java.lang.Boolean">false</attribute>
                <attribute name="railsimMinimumTime" class="java.lang.Double">20.0</attribute>
                <attribute name="railsimResourceType" class="java.lang.String">fixedBlock</attribute>
            </attributes>
        </link>
        <link id="f03_0" from="n04_0" to="n03_0" length="40.0" freespeed="44.444" capacity="9999.0" permlanes="1.0"
              modes="rail" oneway="1">
            <attributes>
                <attribute name="railsimTrainCapacity" class="java.lang.Integer">1</attribute>
                <attribute name="railsimNonBlockingArea" class="java.lang.Boolean">true</attribute>
                <attribute name="railsimEntry" class="java.lang.Boolean">false</attribute>
                <attribute name="railsimMinimumTime" class="java.lang.Double">20.0</attribute>
                <attribute name="railsimResourceType" class="java.lang.String">fixedBlock</attribute>
            </attributes>
        </link>
        <link id="f04" from="n04" to="n05_2" length="64.0" freespeed="30.5556" capacity="9999.0" permlanes="1.0"
              modes="rail" oneway="1">
            <attributes>
                <attribute name="railsimResourceId" class="java.lang.String">switch_2</attribute>
                <attribute name="railsimTrainCapacity" class="java.lang.Integer">1</attribute>
                <attribute name="railsimNonBlockingArea" class="java.lang.Boolean">true</attribute>
                <attribute name="railsimMinimumTime" class="java.lang.Double">20.0</attribute>
                <attribute name="railsimResourceType" class="java.lang.String">fixedBlock</attribute>
            </attributes>
        </link>
        <link id="switch_new_0_1" from="n03" to="n_new_0" length="64.0" freespeed="30.5556" capacity="9999.0"
              permlanes="1.0" modes="rail" oneway="1">
            <attributes>
                <attribute name="railsimResourceId" class="java.lang.String">switch_1</attribute>
                <attribute name="railsimTrainCapacity" class="java.lang.Integer">1</attribute>
                <attribute name="railsimNonBlockingArea" class="java.lang.Boolean">true</attribute>
                <attribute name="railsimMinimumTime" class="java.lang.Double">20.0</attribute>
                <attribute name="railsimResourceType" class="java.lang.String">fixedBlock</attribute>
            </attributes>
        </link>
        <link id="f05" from="n04" to="n05_1" length="40.0" freespeed="44.444" capacity="9999.0" permlanes="1.0"
              modes="rail" oneway="1">
            <attributes>
                <attribute name="railsimTrainCapacity" class="java.lang.Integer">1</attribute>
                <attribute name="railsimResourceId" class="java.lang.String">switch_2</attribute>
                <attribute name="railsimNonBlockingArea" class="java.lang.Boolean">true</attribute>
                <attribute name="railsimMinimumTime" class="java.lang.Double">20.0</attribute>
                <attribute name="railsimResourceType" class="java.lang.String">fixedBlock</attribute>
            </attributes>
        </link>
        <link id="f05_0" from="n05_0" to="n04_0" length="40.0" freespeed="44.444" capacity="9999.0" permlanes="1.0"
              modes="rail" oneway="1">
            <attributes>
                <attribute name="railsimTrainCapacity" class="java.lang.Integer">1</attribute>
                <attribute name="railsimNonBlockingArea" class="java.lang.Boolean">true</attribute>
                <attribute name="railsimMinimumTime" class="java.lang.Double">20.0</attribute>
                <attribute name="railsimResourceType" class="java.lang.String">fixedBlock</attribute>
            </attributes>
        </link>
        <link id="f06" from="n05_1" to="n06_1" length="470.0" freespeed="44.444" capacity="9999.0" permlanes="1.0"
              modes="rail" oneway="1">
            <attributes>
                <attribute name="railsimResourceId" class="java.lang.String">platform_f</attribute>
                <attribute name="railsimTrainCapacity" class="java.lang.Integer">1</attribute>
                <attribute name="railsimUtilizationMonitor" class="java.lang.Boolean">true</attribute>
                <attribute name="railsimResourceType" class="java.lang.String">fixedBlock</attribute>
            </attributes>
        </link>
        <link id="f06_0" from="n06_0" to="n05_0" length="470.0" freespeed="44.444" capacity="9999.0" permlanes="1.0"
              modes="rail" oneway="1">
            <attributes>
                <attribute name="railsimResourceId" class="java.lang.String">platform_r</attribute>
                <attribute name="railsimTrainCapacity" class="java.lang.Integer">1</attribute>
                <attribute name="railsimUtilizationMonitor" class="java.lang.Boolean">true</attribute>
                <attribute name="railsimResourceType" class="java.lang.String">fixedBlock</attribute>
            </attributes>
        </link>
        <link id="f07" from="n05_2" to="n06_2" length="470.0" freespeed="44.444" capacity="9999.0" permlanes="1.0"
              modes="rail" oneway="1">
            <attributes>
                <attribute name="railsimResourceId" class="java.lang.String">platform_reversing</attribute>
                <attribute name="railsimTrainCapacity" class="java.lang.Integer">1</attribute>
                <attribute name="railsimUtilizationMonitor" class="java.lang.Boolean">true</attribute>
                <attribute name="railsimResourceType" class="java.lang.String">fixedBlock</attribute>
            </attributes>
        </link>
        <link id="f08" from="n06_1" to="n07" length="40.0" freespeed="44.444" capacity="9999.0" permlanes="1.0"
              modes="rail" oneway="1">
            <attributes>
                <attribute name="railsimResourceId" class="java.lang.String">switch_3</attribute>
                <attribute name="railsimTrainCapacity" class="java.lang.Integer">1</attribute>
                <attribute name="railsimNonBlockingArea" class="java.lang.Boolean">true</attribute>
                <attribute name="railsimMinimumTime" class="java.lang.Double">20.0</attribute>
                <attribute name="railsimResourceType" class="java.lang.String">fixedBlock</attribute>
            </attributes>
        </link>
        <link id="f08_0" from="n07_0" to="n06_0" length="40.0" freespeed="44.444" capacity="9999.0" permlanes="1.0"
              modes="rail" oneway="1">
            <attributes>
                <attribute name="railsimTrainCapacity" class="java.lang.Integer">1</attribute>
                <attribute name="railsimNonBlockingArea" class="java.lang.Boolean">true</attribute>
                <attribute name="railsimMinimumTime" class="java.lang.Double">20.0</attribute>
                <attribute name="railsimResourceType" class="java.lang.String">fixedBlock</attribute>
            </attributes>
        </link>
        <link id="f10" from="n07" to="n08" length="40.0" freespeed="44.444" capacity="9999.0" permlanes="1.0"
              modes="rail" oneway="1">
            <attributes>
                <attribute name="railsimResourceId" class="java.lang.String">switch_3</attribute>
                <attribute name="railsimTrainCapacity" class="java.lang.Integer">1</attribute>
                <attribute name="railsimNonBlockingArea" class="java.lang.Boolean">true</attribute>
                <attribute name="railsimExit" class="java.lang.Boolean">false</attribute>
                <attribute name="railsimMinimumTime" class="java.lang.Double">20.0</attribute>
                <attribute name="railsimResourceType" class="java.lang.String">fixedBlock</attribute>
            </attributes>
        </link>
        <link id="f10_0" from="n08_0" to="n07_0" length="40.0" freespeed="44.444" capacity="9999.0" permlanes="1.0"
              modes="rail" oneway="1">
            <attributes>
                <attribute name="railsimTrainCapacity" class="java.lang.Integer">1</attribute>
                <attribute name="railsimNonBlockingArea" class="java.lang.Boolean">true</attribute>
                <attribute name="railsimExit" class="java.lang.Boolean">false</attribute>
                <attribute name="railsimEntry" class="java.lang.Boolean">true</attribute>
                <attribute name="railsimMinimumTime" class="java.lang.Double">20.0</attribute>
                <attribute name="railsimResourceType" class="java.lang.String">fixedBlock</attribute>
            </attributes>
        </link>
        <link id="f11" from="n08" to="n09" length="500.0" freespeed="44.444" capacity="9999.0" permlanes="1.0"
              modes="rail" oneway="1">
            <attributes>
                <attribute name="railsimResourceId" class="java.lang.String">block_2_f</attribute>
                <attribute name="railsimTrainCapacity" class="java.lang.Integer">1</attribute>
                <attribute name="railsimMinimumTime" class="java.lang.Double">20.0</attribute>
                <attribute name="railsimResourceType" class="java.lang.String">fixedBlock</attribute>
            </attributes>
        </link>
        <link id="f11_0" from="n09_0" to="n08_0" length="500.0" freespeed="44.444" capacity="9999.0" permlanes="1.0"
              modes="rail" oneway="1">
            <attributes>
                <attribute name="railsimResourceId" class="java.lang.String">block_1_r</attribute>
                <attribute name="railsimTrainCapacity" class="java.lang.Integer">1</attribute>
                <attribute name="railsimMinimumTime" class="java.lang.Double">20.0</attribute>
                <attribute name="railsimResourceType" class="java.lang.String">fixedBlock</attribute>
            </attributes>
        </link>
        <link id="f12" from="n09" to="n10" length="9650.0" freespeed="44.444" capacity="9999.0" permlanes="1.0"
              modes="rail" oneway="1">
            <attributes>
                <attribute name="railsimTrainCapacity" class="java.lang.Integer">999</attribute>
            </attributes>
        </link>
        <link id="f12_0" from="n10_0" to="n09_0" length="9650.0" freespeed="44.444" capacity="9999.0" permlanes="1.0"
              modes="rail" oneway="1">
            <attributes>
                <attribute name="railsimTrainCapacity" class="java.lang.Integer">999</attribute>
            </attributes>
        </link>
        <link id="f13" from="n10" to="n11" length="500.0" freespeed="44.444" capacity="9999.0" permlanes="1.0"
              modes="rail" oneway="1">
            <attributes>
                <attribute name="railsimTrainCapacity" class="java.lang.Integer">999</attribute>
            </attributes>
        </link>
        <link id="f13_0" from="n11_0" to="n10_0" length="500.0" freespeed="44.444" capacity="9999.0" permlanes="1.0"
              modes="rail" oneway="1">
            <attributes>
                <attribute name="railsimTrainCapacity" class="java.lang.Integer">999</attribute>
            </attributes>
        </link>
        <link id="loop01" from="n01" to="n01" length="1.0" freespeed="44.444" capacity="9999.0" permlanes="1.0"
              modes="rail" oneway="1">
            <attributes>
                <attribute name="railsimTrainCapacity" class="java.lang.Integer">999</attribute>
            </attributes>
        </link>
        <link id="loop02" from="n11" to="n11" length="1.0" freespeed="44.444" capacity="9999.0" permlanes="1.0"
              modes="rail" oneway="1">
            <attributes>
                <attribute name="railsimTrainCapacity" class="java.lang.Integer">999</attribute>
            </attributes>
        </link>
        <link id="loop01_0" from="n01_0" to="n01_0" length="1.0" freespeed="44.444" capacity="9999.0" permlanes="1.0"
              modes="rail" oneway="1">
            <attributes>
                <attribute name="railsimTrainCapacity" class="java.lang.Integer">999</attribute>
            </attributes>
        </link>
        <link id="loop02_0" from="n11_0" to="n11_0" length="1.0" freespeed="44.444" capacity="9999.0" permlanes="1.0"
              modes="rail" oneway="1">
            <attributes>
                <attribute name="railsimTrainCapacity" class="java.lang.Integer">999</attribute>
            </attributes>
        </link>
        <link id="131" from="n06_2" to="n05_2" length="470.0" freespeed="44.444" capacity="9999.0" permlanes="1.0"
              modes="rail" oneway="1">
            <attributes>
                <attribute name="railsimResourceId" class="java.lang.String">platform_reversing</attribute>
                <attribute name="railsimTrainCapacity" class="java.lang.Integer">1</attribute>
                <attribute name="railsimUtilizationMonitor" class="java.lang.Boolean">true</attribute>
                <attribute name="railsimResourceType" class="java.lang.String">fixedBlock</attribute>
            </attributes>
        </link>
        <link id="132" from="n05_2" to="n04" length="64.03124237432849" freespeed="30.5556" capacity="9999.0"
              permlanes="1.0" modes="rail" oneway="1">
            <attributes>
                <attribute name="railsimResourceId" class="java.lang.String">switch_2</attribute>
                <attribute name="railsimTrainCapacity" class="java.lang.Integer">1</attribute>
                <attribute name="railsimNonBlockingArea" class="java.lang.Boolean">true</attribute>
                <attribute name="railsimUtilizationMonitor" class="java.lang.Boolean">false</attribute>
                <attribute name="railsimMinimumTime" class="java.lang.Double">20.0</attribute>
                <attribute name="railsimResourceType" class="java.lang.String">fixedBlock</attribute>
            </attributes>
        </link>
        <link id="133" from="n04" to="n03" length="40.0" freespeed="13.89" capacity="9999.0" permlanes="1.0"
              modes="rail" oneway="1">
            <attributes>
                <attribute name="railsimResourceId" class="java.lang.String">switch_2</attribute>
                <attribute name="railsimTrainCapacity" class="java.lang.Integer">1</attribute>
                <attribute name="railsimNonBlockingArea" class="java.lang.Boolean">true</attribute>
                <attribute name="railsimMinimumTime" class="java.lang.Double">20.0</attribute>
                <attribute name="railsimResourceType" class="java.lang.String">fixedBlock</attribute>
            </attributes>
        </link>
    </links>
</network>
