<?xml version="1.0" encoding="UTF-8"?>
<!DOCTYPE network SYSTEM "http://www.matsim.org/files/dtd/network_v2.dtd">
<network>
    <nodes>
        <node id="1" x="-10500.0" y="0.0">
        </node>
        <node id="2" x="-500.0" y="0.0">
        </node>
        <node id="3" x="0.0" y="0.0">
        </node>
        <node id="4" x="80.0" y="0.0">
        </node>
        <node id="5" x="550.0" y="0.0">
        </node>
        <node id="6" x="630.0" y="0.0">
        </node>
        <node id="7" x="1130.0" y="0.0">
        </node>
        <node id="8" x="11130.0" y="0.0">
        </node>
    </nodes>
    <links>
        <link id="stop_loop_L" from="1" to="1" length="1.0" freespeed="44.444" capacity="9999.0" permlanes="1.0"
              modes="rail">
            <attributes>
                <attribute name="railsimResourceId" class="java.lang.String">unconstrained_stop_1</attribute>
                <attribute name="railsimTrainCapacity" class="java.lang.Integer">9999</attribute>
            </attributes>
        </link>
        <link id="1" from="1" to="2" length="10000.0" freespeed="44.444" capacity="9999.0" permlanes="1.0"
              modes="rail">
            <attributes>
                <attribute name="railsimResourceId" class="java.lang.String">unconstrained_track_1</attribute>
                <attribute name="railsimTrainCapacity" class="java.lang.Integer">9999</attribute>
            </attributes>
        </link>
        <link id="2" from="2" to="3" length="500.0" freespeed="44.444" capacity="9999.0" permlanes="1.0"
              modes="rail">
            <attributes>
                <attribute name="railsimResourceId" class="java.lang.String">block_1</attribute>
                <attribute name="railsimResourceType" class="java.lang.String">movingBlock</attribute>
                <attribute name="railsimMinimumTime" class="java.lang.Double">20.0</attribute>
                <attribute name="railsimTrainCapacity" class="java.lang.Integer">1</attribute>
            </attributes>
        </link>
        <link id="3" from="3" to="4" length="80.0" freespeed="44.444" capacity="9999.0" permlanes="1.0"
              modes="rail">
            <attributes>
                <attribute name="railsimEntry" class="java.lang.Boolean">true</attribute>
                <attribute name="railsimResourceId" class="java.lang.String">pseudo_switch_1</attribute>
                <attribute name="railsimResourceType" class="java.lang.String">fixedBlock</attribute>
                <attribute name="railsimMinimumTime" class="java.lang.Double">20.0</attribute>
                <attribute name="railsimTrainCapacity" class="java.lang.Integer">1</attribute>
            </attributes>
        </link>
        <link id="4" from="4" to="5" length="470.0" freespeed="44.444" capacity="9999.0" permlanes="1.0"
              modes="rail">
            <attributes>
                <attribute name="railsimResourceId" class="java.lang.String">platform_1</attribute>
                <attribute name="railsimResourceType" class="java.lang.String">fixedBlock</attribute>
                <attribute name="railsimTrainCapacity" class="java.lang.Integer">1</attribute>
            </attributes>
        </link>
        <link id="5" from="5" to="6" length="80.0" freespeed="44.444" capacity="9999.0" permlanes="1.0"
              modes="rail">
            <attributes>
                <attribute name="railsimExit" class="java.lang.Boolean">true</attribute>
                <attribute name="railsimResourceId" class="java.lang.String">pseudo_switch_2</attribute>
                <attribute name="railsimResourceType" class="java.lang.String">fixedBlock</attribute>
                <attribute name="railsimMinimumTime" class="java.lang.Double">20.0</attribute>
                <attribute name="railsimTrainCapacity" class="java.lang.Integer">1</attribute>
            </attributes>
        </link>
        <link id="6" from="6" to="7" length="500.0" freespeed="44.444" capacity="9999.0" permlanes="1.0"
              modes="rail">
            <attributes>
                <attribute name="railsimResourceId" class="java.lang.String">block_2</attribute>
                <attribute name="railsimResourceType" class="java.lang.String">movingBlock</attribute>
                <attribute name="railsimMinimumTime" class="java.lang.Double">20.0</attribute>
                <attribute name="railsimTrainCapacity" class="java.lang.Integer">1</attribute>
            </attributes>
        </link>
        <link id="7" from="7" to="8" length="10000.0" freespeed="44.444" capacity="9999.0" permlanes="1.0"
              modes="rail">
            <attributes>
                <attribute name="railsimResourceId" class="java.lang.String">unconstrained_track_2</attribute>
                <attribute name="railsimTrainCapacity" class="java.lang.Integer">9999</attribute>
            </attributes>
        </link>
        <link id="stop_loop_R" from="8" to="8" length="1.0" freespeed="44.444" capacity="9999.0" permlanes="1.0"
              modes="rail">
            <attributes>
                <attribute name="railsimResourceId" class="java.lang.String">unconstrained_stop_2</attribute>
                <attribute name="railsimTrainCapacity" class="java.lang.Integer">9999</attribute>
            </attributes>
        </link>
    </links>
</network>
