<?xml version="1.0" encoding="UTF-8"?>
<!DOCTYPE network SYSTEM "http://www.matsim.org/files/dtd/network_v2.dtd">
<network>

    <!-- ====================================================================== -->

    <nodes>
        <node id="n1" x="-10500.0" y="0.0">
        </node>
        <node id="n2" x="-500.0" y="0.0">
        </node>
        <node id="n3" x="0.0" y="0.0">
        </node>
        <node id="n4" x="80.0" y="0.0">
        </node>
        <node id="n5" x="550.0" y="0.0">
        </node>
        <node id="n6" x="630.0" y="0.0">
        </node>
        <node id="n7" x="1130.0" y="0.0">
        </node>
        <node id="n8" x="11130.0" y="0.0">
        </node>
    </nodes>

    <!-- ====================================================================== -->

    <links capperiod="01:00:00" effectivecellsize="7.5" effectivelanewidth="3.75">
        <link id="f1" from="n1" to="n2" length="10000.0" freespeed="44.444" capacity="9999.0" permlanes="1.0" oneway="1"
              modes="rail">
            <attributes>
                <attribute name="railsimResourceId" class="java.lang.String">unconstrained_track_1</attribute>
                <attribute name="railsimTrainCapacity" class="java.lang.Integer">9999</attribute>
            </attributes>
        </link>
        <link id="f2" from="n2" to="n3" length="500.0" freespeed="44.444" capacity="9999.0" permlanes="1.0" oneway="1"
              modes="rail">
            <attributes>
                <attribute name="railsimMinimumTime" class="java.lang.Double">20.0</attribute>
                <attribute name="railsimResourceId" class="java.lang.String">block_1</attribute>
                <attribute name="railsimResourceType" class="java.lang.String">fixedBlock</attribute>
                <attribute name="railsimTrainCapacity" class="java.lang.Integer">1</attribute>
            </attributes>
        </link>
        <link id="f3" from="n3" to="n4" length="80.0" freespeed="44.444" capacity="9999.0" permlanes="1.0" oneway="1"
              modes="rail">
            <attributes>
                <attribute name="railsimEntry" class="java.lang.Boolean">true</attribute>
                <attribute name="railsimMinimumTime" class="java.lang.Double">20.0</attribute>
                <attribute name="railsimResourceId" class="java.lang.String">pseudo_switch_1</attribute>
                <attribute name="railsimResourceType" class="java.lang.String">fixedBlock</attribute>
                <attribute name="railsimTrainCapacity" class="java.lang.Integer">1</attribute>
            </attributes>
        </link>
        <link id="f4" from="n4" to="n5" length="470.0" freespeed="44.444" capacity="9999.0" permlanes="1.0" oneway="1"
              modes="rail">
            <attributes>
                <attribute name="railsimResourceId" class="java.lang.String">platform_1</attribute>
                <attribute name="railsimResourceType" class="java.lang.String">fixedBlock</attribute>
                <attribute name="railsimTrainCapacity" class="java.lang.Integer">1</attribute>
            </attributes>
        </link>
        <link id="f5" from="n5" to="n6" length="80.0" freespeed="44.444" capacity="9999.0" permlanes="1.0" oneway="1"
              modes="rail">
            <attributes>
                <attribute name="railsimExit" class="java.lang.Boolean">true</attribute>
                <attribute name="railsimMinimumTime" class="java.lang.Double">20.0</attribute>
                <attribute name="railsimResourceId" class="java.lang.String">pseudo_switch_2</attribute>
                <attribute name="railsimResourceType" class="java.lang.String">fixedBlock</attribute>
                <attribute name="railsimTrainCapacity" class="java.lang.Integer">1</attribute>
            </attributes>
        </link>
        <link id="f6" from="n6" to="n7" length="500.0" freespeed="44.444" capacity="9999.0" permlanes="1.0" oneway="1"
              modes="rail">
            <attributes>
                <attribute name="railsimMinimumTime" class="java.lang.Double">20.0</attribute>
                <attribute name="railsimResourceId" class="java.lang.String">block_2</attribute>
                <attribute name="railsimResourceType" class="java.lang.String">fixedBlock</attribute>
                <attribute name="railsimTrainCapacity" class="java.lang.Integer">1</attribute>
            </attributes>
        </link>
        <link id="f7" from="n7" to="n8" length="10000.0" freespeed="44.444" capacity="9999.0" permlanes="1.0" oneway="1"
              modes="rail">
            <attributes>
                <attribute name="railsimResourceId" class="java.lang.String">unconstrained_track_2</attribute>
                <attribute name="railsimTrainCapacity" class="java.lang.Integer">9999</attribute>
            </attributes>
        </link>
        <link id="loop1" from="n1" to="n1" length="1.0" freespeed="44.444" capacity="9999.0" permlanes="1.0" oneway="1"
              modes="rail">
            <attributes>
                <attribute name="railsimResourceId" class="java.lang.String">unconstrained_stop_1</attribute>
                <attribute name="railsimTrainCapacity" class="java.lang.Integer">9999</attribute>
            </attributes>
        </link>
        <link id="loop2" from="n8" to="n8" length="1.0" freespeed="44.444" capacity="9999.0" permlanes="1.0" oneway="1"
              modes="rail">
            <attributes>
                <attribute name="railsimResourceId" class="java.lang.String">unconstrained_stop_2</attribute>
                <attribute name="railsimTrainCapacity" class="java.lang.Integer">9999</attribute>
            </attributes>
        </link>
    </links>

    <!-- ====================================================================== -->

</network>
