<?xml version="1.0" encoding="UTF-8"?>
<!DOCTYPE network SYSTEM "http://www.matsim.org/files/dtd/network_v2.dtd">
<network>

    <nodes>
        <node id="10" x="-10700.0" y="0.0"/>
        <node id="11" x="-11200.0" y="0.0"/>
        <node id="12" x="10730.0" y="0.0"/>
        <node id="3" x="-470.0" y="100.0"/>
        <node id="5" x="0.0" y="100.0"/>
        <node id="6" x="80.0" y="50.0"/>
        <node id="614" x="-510.0" y="50.0"/>
        <node id="615" x="40.0" y="50.0"/>
        <node id="616" x="-550.0" y="50.0"/>
        <node id="6180" x="-1130.0" y="0.0"/>
        <node id="618" x="-630.0" y="0.0"/>
        <node id="617" x="160.0" y="0.0"/>
        <node id="6170" x="660.0" y="0.0"/>
        <node id="619" x="-470.0" y="50.0"/>
        <node id="620" x="0.0" y="50.0"/>
        <node id="621" x="-550.0" y="0.0"/>
        <node id="622" x="80.0" y="0.0"/>
        <node id="623" x="-470.0" y="0.0"/>
        <node id="624" x="0.0" y="0.0"/>
        <node id="7" x="-590.0" y="0.0"/>
        <node id="8" x="120.0" y="0.0"/>
        <node id="9" x="10230.0" y="0.0"/>
    </nodes>

    <links>
        <link id="15" from="11" to="10" length="500.0" freespeed="44.444" capacity="9999.0" permlanes="1.0"
              modes="rail">
            <attributes>
                <attribute name="railsimTrainCapacity" class="java.lang.Integer">999</attribute>
            </attributes>
        </link>
        <link id="17" from="9" to="12" length="500.0" freespeed="44.444" capacity="9999.0" permlanes="1.0" modes="rail">
            <attributes>
                <attribute name="railsimTrainCapacity" class="java.lang.Integer">999</attribute>
            </attributes>
        </link>
        <link id="18" from="7" to="616" length="40.0" freespeed="30.556" capacity="9999.0" permlanes="1.0" modes="rail">
            <attributes>
                <attribute name="railsimResourceId" class="java.lang.String">switch_1</attribute>
                <attribute name="railsimResourceType" class="java.lang.String">fixedBlock</attribute>
                <attribute name="railsimNonBlockingArea" class="java.lang.Boolean">true</attribute>
                <attribute name="railsimMinimumTime" class="java.lang.Double">20.0</attribute>
                <attribute name="railsimTrainCapacity" class="java.lang.Integer">1</attribute>
            </attributes>
        </link>
        <link id="19" from="616" to="614" length="40.0" freespeed="44.444" capacity="9999.0" permlanes="1.0"
              modes="rail">
            <attributes>
                <attribute name="railsimResourceId" class="java.lang.String">switch_3</attribute>
                <attribute name="railsimResourceType" class="java.lang.String">fixedBlock</attribute>
                <attribute name="railsimNonBlockingArea" class="java.lang.Boolean">true</attribute>
                <attribute name="railsimMinimumTime" class="java.lang.Double">20.0</attribute>
                <attribute name="railsimTrainCapacity" class="java.lang.Integer">1</attribute>
            </attributes>
        </link>
        <link id="20" from="614" to="3" length="40.0" freespeed="30.556" capacity="9999.0" permlanes="1.0" modes="rail">
            <attributes>
                <attribute name="railsimResourceId" class="java.lang.String">switch_3</attribute>
                <attribute name="railsimResourceType" class="java.lang.String">fixedBlock</attribute>
                <attribute name="railsimNonBlockingArea" class="java.lang.Boolean">true</attribute>
                <attribute name="railsimMinimumTime" class="java.lang.Double">20.0</attribute>
                <attribute name="railsimTrainCapacity" class="java.lang.Integer">1</attribute>
            </attributes>
        </link>
        <link id="22" from="5" to="615" length="40.0" freespeed="30.556" capacity="9999.0" permlanes="1.0" modes="rail">
            <attributes>
                <attribute name="railsimResourceId" class="java.lang.String">switch_4</attribute>
                <attribute name="railsimResourceType" class="java.lang.String">fixedBlock</attribute>
                <attribute name="railsimNonBlockingArea" class="java.lang.Boolean">true</attribute>
                <attribute name="railsimMinimumTime" class="java.lang.Double">20.0</attribute>
                <attribute name="railsimTrainCapacity" class="java.lang.Integer">1</attribute>
            </attributes>
        </link>
        <link id="23" from="615" to="6" length="40.0" freespeed="44.444" capacity="9999.0" permlanes="1.0" modes="rail">
            <attributes>
                <attribute name="railsimResourceId" class="java.lang.String">switch_4</attribute>
                <attribute name="railsimResourceType" class="java.lang.String">fixedBlock</attribute>
                <attribute name="railsimNonBlockingArea" class="java.lang.Boolean">true</attribute>
                <attribute name="railsimMinimumTime" class="java.lang.Double">20.0</attribute>
                <attribute name="railsimTrainCapacity" class="java.lang.Integer">1</attribute>
            </attributes>
        </link>
        <link id="26" from="619" to="620" length="470.0" freespeed="44.444" capacity="9999.0" permlanes="1.0"
              modes="rail">
            <attributes>
                <attribute name="railsimResourceId" class="java.lang.String">platform_2</attribute>
                <attribute name="railsimResourceType" class="java.lang.String">fixedBlock</attribute>
                <attribute name="railsimTrainCapacity" class="java.lang.Integer">1</attribute>
            </attributes>
        </link>
        <link id="27" from="620" to="615" length="40.0" freespeed="44.444" capacity="9999.0" permlanes="1.0"
              modes="rail">
            <attributes>
                <attribute name="railsimResourceId" class="java.lang.String">switch_4</attribute>
                <attribute name="railsimResourceType" class="java.lang.String">fixedBlock</attribute>
                <attribute name="railsimNonBlockingArea" class="java.lang.Boolean">true</attribute>
                <attribute name="railsimMinimumTime" class="java.lang.Double">20.0</attribute>
                <attribute name="railsimTrainCapacity" class="java.lang.Integer">1</attribute>
            </attributes>
        </link>
        <link id="28" from="614" to="619" length="40.0" freespeed="44.444" capacity="9999.0" permlanes="1.0"
              modes="rail">
            <attributes>
                <attribute name="railsimResourceId" class="java.lang.String">switch_3</attribute>
                <attribute name="railsimResourceType" class="java.lang.String">fixedBlock</attribute>
                <attribute name="railsimNonBlockingArea" class="java.lang.Boolean">true</attribute>
                <attribute name="railsimMinimumTime" class="java.lang.Double">20.0</attribute>
                <attribute name="railsimTrainCapacity" class="java.lang.Integer">1</attribute>
            </attributes>
        </link>
        <link id="30" from="618" to="7" length="40.0" freespeed="44.444" capacity="9999.0" permlanes="1.0" modes="rail">
            <attributes>
                <attribute name="railsimResourceId" class="java.lang.String">switch_1</attribute>
                <attribute name="railsimResourceType" class="java.lang.String">fixedBlock</attribute>
                <attribute name="railsimNonBlockingArea" class="java.lang.Boolean">true</attribute>
                <attribute name="railsimMinimumTime" class="java.lang.Double">20.0</attribute>
                <attribute name="railsimTrainCapacity" class="java.lang.Integer">1</attribute>
                <attribute name="railsimEntry" class="java.lang.Boolean">true</attribute>
            </attributes>
        </link>
        <link id="31" from="7" to="621" length="40.0" freespeed="44.444" capacity="9999.0" permlanes="1.0" modes="rail">
            <attributes>
                <attribute name="railsimResourceId" class="java.lang.String">switch_1</attribute>
                <attribute name="railsimResourceType" class="java.lang.String">fixedBlock</attribute>
                <attribute name="railsimNonBlockingArea" class="java.lang.Boolean">true</attribute>
                <attribute name="railsimMinimumTime" class="java.lang.Double">20.0</attribute>
                <attribute name="railsimTrainCapacity" class="java.lang.Integer">1</attribute>
            </attributes>
        </link>
        <link id="32" from="622" to="8" length="40.0" freespeed="44.444" capacity="9999.0" permlanes="1.0" modes="rail">
            <attributes>
                <attribute name="railsimResourceId" class="java.lang.String">switch_2</attribute>
                <attribute name="railsimResourceType" class="java.lang.String">fixedBlock</attribute>
                <attribute name="railsimNonBlockingArea" class="java.lang.Boolean">true</attribute>
                <attribute name="railsimMinimumTime" class="java.lang.Double">20.0</attribute>
                <attribute name="railsimTrainCapacity" class="java.lang.Integer">1</attribute>
            </attributes>
        </link>
        <link id="33" from="10" to="6180" length="9570.0" freespeed="44.444" capacity="9999.0" permlanes="1.0"
              modes="rail">
            <attributes>
                <attribute name="railsimTrainCapacity" class="java.lang.Integer">999</attribute>
            </attributes>
        </link>
        <link id="3300" from="6180" to="618" length="500.0" freespeed="44.444" capacity="9999.0" permlanes="1.0"
              modes="rail">
            <attributes>
                <attribute name="railsimResourceId" class="java.lang.String">block_1</attribute>
                <attribute name="railsimResourceType" class="java.lang.String">fixedBlock</attribute>
                <attribute name="railsimMinimumTime" class="java.lang.Double">20.0</attribute>
                <attribute name="railsimTrainCapacity" class="java.lang.Integer">1</attribute>
            </attributes>
        </link>
        <link id="34" from="8" to="617" length="40.0" freespeed="44.444" capacity="9999.0" permlanes="1.0" modes="rail">
            <attributes>
                <attribute name="railsimResourceId" class="java.lang.String">switch_2</attribute>
                <attribute name="railsimResourceType" class="java.lang.String">fixedBlock</attribute>
                <attribute name="railsimNonBlockingArea" class="java.lang.Boolean">true</attribute>
                <attribute name="railsimMinimumTime" class="java.lang.Double">20.0</attribute>
                <attribute name="railsimTrainCapacity" class="java.lang.Integer">1</attribute>
                <attribute name="railsimExit" class="java.lang.Boolean">true</attribute>
            </attributes>
        </link>
        <link id="3500" from="617" to="6170" length="500.0" freespeed="44.444" capacity="9999.0" permlanes="1.0"
              modes="rail">
            <attributes>
                <attribute name="railsimResourceId" class="java.lang.String">block_2</attribute>
                <attribute name="railsimResourceType" class="java.lang.String">fixedBlock</attribute>
                <attribute name="railsimMinimumTime" class="java.lang.Double">20.0</attribute>
                <attribute name="railsimTrainCapacity" class="java.lang.Integer">1</attribute>
            </attributes>
        </link>
        <link id="35" from="6170" to="9" length="9570.0" freespeed="44.444" capacity="9999.0" permlanes="1.0"
              modes="rail">
            <attributes>
                <attribute name="railsimTrainCapacity" class="java.lang.Integer">999</attribute>
            </attributes>
        </link>
        <link id="4" from="3" to="5" length="470.0" freespeed="44.444" capacity="9999.0" permlanes="1.0" modes="rail">
            <attributes>
                <attribute name="railsimResourceId" class="java.lang.String">platform_3</attribute>
                <attribute name="railsimResourceType" class="java.lang.String">fixedBlock</attribute>
                <attribute name="railsimTrainCapacity" class="java.lang.Integer">1</attribute>
            </attributes>
        </link>
        <link id="621" from="6" to="8" length="40.0" freespeed="30.556" capacity="9999.0" permlanes="1.0" modes="rail">
            <attributes>
                <attribute name="railsimResourceId" class="java.lang.String">switch_2</attribute>
                <attribute name="railsimResourceType" class="java.lang.String">fixedBlock</attribute>
                <attribute name="railsimNonBlockingArea" class="java.lang.Boolean">true</attribute>
                <attribute name="railsimMinimumTime" class="java.lang.Double">20.0</attribute>
                <attribute name="railsimTrainCapacity" class="java.lang.Integer">1</attribute>
            </attributes>
        </link>
        <link id="622" from="621" to="623" length="80.0" freespeed="44.444" capacity="9999.0" permlanes="1.0"
              modes="rail">
            <attributes>
                <attribute name="railsimResourceType" class="java.lang.String">fixedBlock</attribute>
                <attribute name="railsimNonBlockingArea" class="java.lang.Boolean">true</attribute>
                <attribute name="railsimTrainCapacity" class="java.lang.Integer">1</attribute>
            </attributes>
        </link>
        <link id="623" from="623" to="624" length="470.0" freespeed="44.444" capacity="9999.0" permlanes="1.0"
              modes="rail">
            <attributes>
                <attribute name="railsimResourceId" class="java.lang.String">platform_1</attribute>
                <attribute name="railsimResourceType" class="java.lang.String">fixedBlock</attribute>
                <attribute name="railsimTrainCapacity" class="java.lang.Integer">1</attribute>
            </attributes>
        </link>
        <link id="624" from="624" to="622" length="80.0" freespeed="44.444" capacity="9999.0" permlanes="1.0"
              modes="rail">
            <attributes>
                <attribute name="railsimResourceType" class="java.lang.String">fixedBlock</attribute>
                <attribute name="railsimNonBlockingArea" class="java.lang.Boolean">true</attribute>
                <attribute name="railsimTrainCapacity" class="java.lang.Integer">1</attribute>
            </attributes>
        </link>
        <link id="stop_loop_10" from="10" to="10" length="1.0" freespeed="44.444" capacity="9999.0" permlanes="1.0"
              modes="rail">
            <attributes>
                <attribute name="railsimTrainCapacity" class="java.lang.Integer">999</attribute>
            </attributes>
        </link>
        <link id="stop_loop_12" from="12" to="12" length="1.0" freespeed="44.444" capacity="9999.0" permlanes="1.0"
              modes="rail">
            <attributes>
                <attribute name="railsimTrainCapacity" class="java.lang.Integer">999</attribute>
            </attributes>
        </link>
    </links>

</network>
