<?xml version="1.0" encoding="UTF-8"?>
<!DOCTYPE network SYSTEM "http://www.matsim.org/files/dtd/network_v2.dtd">
<network>

    <!-- ====================================================================== -->

    <nodes>
        <node id="n01" x="-10700.0" y="0.0">
        </node>
        <node id="n02" x="-1050.0" y="0.0">
        </node>
        <node id="n03" x="-550.0" y="0.0">
        </node>
        <node id="n04" x="-510.0" y="0.0">
        </node>
        <node id="n05_1" x="-470.0" y="0.0">
        </node>
        <node id="n05_2" x="-470.0" y="50.0">
        </node>
        <node id="n06_1" x="0.0" y="0.0">
        </node>
        <node id="n06_2" x="0.0" y="50.0">
        </node>
        <node id="n07" x="40.0" y="0.0">
        </node>
        <node id="n08" x="80.0" y="0.0">
        </node>
        <node id="n09" x="580.0" y="0.0">
        </node>
        <node id="n10" x="10230.0" y="0.0">
        </node>
        <node id="n11" x="10730.0" y="0.0">
        </node>
    </nodes>

    <!-- ====================================================================== -->

    <links capperiod="01:00:00" effectivecellsize="7.5" effectivelanewidth="3.75">
        <link id="f01" from="n01" to="n02" length="9650.0" freespeed="44.444" capacity="9999.0" permlanes="1.0"
              oneway="1" modes="rail">
            <attributes>
                <attribute name="railsimTrainCapacity" class="java.lang.Integer">999</attribute>
            </attributes>
        </link>
        <link id="f02" from="n02" to="n03" length="500.0" freespeed="44.444" capacity="9999.0" permlanes="1.0"
              oneway="1" modes="rail">
            <attributes>
                <attribute name="railsimMinimumTime" class="java.lang.Double">20.0</attribute>
                <attribute name="railsimResourceId" class="java.lang.String">block_1</attribute>
                <attribute name="railsimResourceType" class="java.lang.String">fixedBlock</attribute>
                <attribute name="railsimTrainCapacity" class="java.lang.Integer">1</attribute>
            </attributes>
        </link>
        <link id="f03" from="n03" to="n04" length="40.0" freespeed="44.444" capacity="9999.0" permlanes="1.0" oneway="1"
              modes="rail">
            <attributes>
                <attribute name="railsimEntry" class="java.lang.Boolean">true</attribute>
                <attribute name="railsimMinimumTime" class="java.lang.Double">20.0</attribute>
                <attribute name="railsimNonBlockingArea" class="java.lang.Boolean">true</attribute>
                <attribute name="railsimResourceId" class="java.lang.String">switch_1</attribute>
                <attribute name="railsimResourceType" class="java.lang.String">fixedBlock</attribute>
                <attribute name="railsimTrainCapacity" class="java.lang.Integer">1</attribute>
            </attributes>
        </link>
        <link id="f04" from="n04" to="n05_2" length="64.0" freespeed="30.5556" capacity="9999.0" permlanes="1.0"
              oneway="1" modes="rail">
            <attributes>
                <attribute name="railsimMinimumTime" class="java.lang.Double">20.0</attribute>
                <attribute name="railsimNonBlockingArea" class="java.lang.Boolean">true</attribute>
                <attribute name="railsimResourceId" class="java.lang.String">switch_1</attribute>
                <attribute name="railsimResourceType" class="java.lang.String">fixedBlock</attribute>
                <attribute name="railsimTrainCapacity" class="java.lang.Integer">1</attribute>
            </attributes>
        </link>
        <link id="f05" from="n04" to="n05_1" length="40.0" freespeed="44.444" capacity="9999.0" permlanes="1.0"
              oneway="1" modes="rail">
            <attributes>
                <attribute name="railsimMinimumTime" class="java.lang.Double">20.0</attribute>
                <attribute name="railsimNonBlockingArea" class="java.lang.Boolean">true</attribute>
                <attribute name="railsimResourceId" class="java.lang.String">switch_1</attribute>
                <attribute name="railsimResourceType" class="java.lang.String">fixedBlock</attribute>
                <attribute name="railsimTrainCapacity" class="java.lang.Integer">1</attribute>
            </attributes>
        </link>
        <link id="f06" from="n05_1" to="n06_1" length="470.0" freespeed="44.444" capacity="9999.0" permlanes="1.0"
              oneway="1" modes="rail">
            <attributes>
                <attribute name="railsimResourceId" class="java.lang.String">platform_1</attribute>
                <attribute name="railsimResourceType" class="java.lang.String">fixedBlock</attribute>
                <attribute name="railsimTrainCapacity" class="java.lang.Integer">1</attribute>
            </attributes>
        </link>
        <link id="f07" from="n05_2" to="n06_2" length="470.0" freespeed="44.444" capacity="9999.0" permlanes="1.0"
              oneway="1" modes="rail">
            <attributes>
                <attribute name="railsimResourceId" class="java.lang.String">platform_2</attribute>
                <attribute name="railsimResourceType" class="java.lang.String">fixedBlock</attribute>
                <attribute name="railsimTrainCapacity" class="java.lang.Integer">1</attribute>
            </attributes>
        </link>
        <link id="f08" from="n06_1" to="n07" length="40.0" freespeed="44.444" capacity="9999.0" permlanes="1.0"
              oneway="1" modes="rail">
            <attributes>
                <attribute name="railsimMinimumTime" class="java.lang.Double">20.0</attribute>
                <attribute name="railsimNonBlockingArea" class="java.lang.Boolean">true</attribute>
                <attribute name="railsimResourceId" class="java.lang.String">switch_2</attribute>
                <attribute name="railsimResourceType" class="java.lang.String">fixedBlock</attribute>
                <attribute name="railsimTrainCapacity" class="java.lang.Integer">1</attribute>
            </attributes>
        </link>
        <link id="f09" from="n06_2" to="n07" length="64.0" freespeed="30.5556" capacity="9999.0" permlanes="1.0"
              oneway="1" modes="rail">
            <attributes>
                <attribute name="railsimMinimumTime" class="java.lang.Double">20.0</attribute>
                <attribute name="railsimNonBlockingArea" class="java.lang.Boolean">true</attribute>
                <attribute name="railsimResourceId" class="java.lang.String">switch_2</attribute>
                <attribute name="railsimResourceType" class="java.lang.String">fixedBlock</attribute>
                <attribute name="railsimTrainCapacity" class="java.lang.Integer">1</attribute>
            </attributes>
        </link>
        <link id="f10" from="n07" to="n08" length="40.0" freespeed="44.444" capacity="9999.0" permlanes="1.0" oneway="1"
              modes="rail">
            <attributes>
                <attribute name="railsimExit" class="java.lang.Boolean">true</attribute>
                <attribute name="railsimMinimumTime" class="java.lang.Double">20.0</attribute>
                <attribute name="railsimNonBlockingArea" class="java.lang.Boolean">true</attribute>
                <attribute name="railsimResourceId" class="java.lang.String">switch_2</attribute>
                <attribute name="railsimResourceType" class="java.lang.String">fixedBlock</attribute>
                <attribute name="railsimTrainCapacity" class="java.lang.Integer">1</attribute>
            </attributes>
        </link>
        <link id="f11" from="n08" to="n09" length="500.0" freespeed="44.444" capacity="9999.0" permlanes="1.0"
              oneway="1" modes="rail">
            <attributes>
                <attribute name="railsimMinimumTime" class="java.lang.Double">20.0</attribute>
                <attribute name="railsimResourceId" class="java.lang.String">block_2</attribute>
                <attribute name="railsimResourceType" class="java.lang.String">fixedBlock</attribute>
                <attribute name="railsimTrainCapacity" class="java.lang.Integer">1</attribute>
            </attributes>
        </link>
        <link id="f12" from="n09" to="n10" length="9650.0" freespeed="44.444" capacity="9999.0" permlanes="1.0"
              oneway="1" modes="rail">
            <attributes>
                <attribute name="railsimTrainCapacity" class="java.lang.Integer">999</attribute>
            </attributes>
        </link>
        <link id="f13" from="n10" to="n11" length="500.0" freespeed="44.444" capacity="9999.0" permlanes="1.0"
              oneway="1" modes="rail">
            <attributes>
                <attribute name="railsimTrainCapacity" class="java.lang.Integer">999</attribute>
            </attributes>
        </link>
        <link id="loop01" from="n01" to="n01" length="1.0" freespeed="44.444" capacity="9999.0" permlanes="1.0"
              oneway="1" modes="rail">
            <attributes>
                <attribute name="railsimTrainCapacity" class="java.lang.Integer">999</attribute>
            </attributes>
        </link>
        <link id="loop02" from="n11" to="n11" length="1.0" freespeed="44.444" capacity="9999.0" permlanes="1.0"
              oneway="1" modes="rail">
            <attributes>
                <attribute name="railsimTrainCapacity" class="java.lang.Integer">999</attribute>
            </attributes>
        </link>
    </links>

    <!-- ====================================================================== -->

</network>
