<?xml version="1.0" encoding="UTF-8"?>
<!DOCTYPE network SYSTEM "http://www.matsim.org/files/dtd/network_v2.dtd">
<network>

    <nodes>
        <node id="1" x="-360.0" y="275.0">
        </node>
        <node id="10" x="-280.0" y="225.0">
        </node>
        <node id="11" x="-320.0" y="225.0">
        </node>
        <node id="12" x="-360.0" y="225.0">
        </node>
        <node id="13" x="-120.0" y="375.0">
        </node>
        <node id="17" x="-120.0" y="275.0">
        </node>
        <node id="18" x="-80.0" y="325.0">
        </node>
        <node id="19" x="-80.0" y="275.0">
        </node>
        <node id="2" x="-240.0" y="275.0">
        </node>
        <node id="20" x="-40.0" y="275.0">
        </node>
        <node id="21" x="20.0" y="275.0">
        </node>
        <node id="22" x="10000.0" y="250.0">
        </node>
        <node id="23a" x="60.0" y="275.0">
        </node>
        <node id="23b" x="60.0" y="225.0">
        </node>
        <node id="24" x="20.0" y="225.0">
        </node>
        <node id="25a" x="-400.0" y="275.0">
        </node>
        <node id="25b" x="-400.0" y="225.0">
        </node>
        <node id="26" x="-10000.0" y="250.0">
        </node>
        <node id="3" x="-200.0" y="275.0">
        </node>
        <node id="4" x="-160.0" y="325.0">
        </node>
        <node id="5" x="-160.0" y="275.0">
        </node>
        <node id="6" x="-180.0" y="250.0">
        </node>
        <node id="625" x="-40.0" y="375.0">
        </node>
        <node id="628a" x="3080.0" y="4375.0">
        </node>
        <node id="628b" x="0.0" y="425.0">
        </node>
        <node id="629" x="3120.0" y="4375.0">
        </node>
        <node id="630" x="-80.0" y="425.0">
        </node>
        <node id="631" x="3600.0" y="4975.0">
        </node>
        <node id="632" x="11000.0" y="250.0">
        </node>
        <node id="633" x="-11000.0" y="250.0">
        </node>
        <node id="637a" x="-10000.0" y="275.0">
        </node>
        <node id="637b" x="-10000.0" y="225.0">
        </node>
        <node id="638b" x="3160.0" y="4375.0">
        </node>
        <node id="639a" x="10000.0" y="275.0">
        </node>
        <node id="639b" x="10000.0" y="225.0">
        </node>
        <node id="7" x="-200.0" y="225.0">
        </node>
        <node id="8" x="-240.0" y="225.0">
        </node>
        <node id="9" x="-160.0" y="225.0">
        </node>
    </nodes>

    <links>
        <link id="13" from="21" to="23a" length="40.0" freespeed="44.444" capacity="9999.0" permlanes="1.0"
              modes="rail">
            <attributes>
                <attribute name="railsimTrainCapacity" class="java.lang.Integer">1</attribute>
            </attributes>
        </link>
        <link id="14" from="20" to="21" length="60.0" freespeed="44.444" capacity="9999.0" permlanes="1.0"
              modes="rail">
            <attributes>
                <attribute name="railsimTrainCapacity" class="java.lang.Integer">1</attribute>
                <attribute name="railsimExit" class="java.lang.Boolean">true</attribute>
            </attributes>
        </link>
        <link id="15" from="19" to="20" length="40.0" freespeed="44.444" capacity="9999.0" permlanes="1.0"
              modes="rail">
            <attributes>
                <attribute name="railsimTrainCapacity" class="java.lang.Integer">1</attribute>
            </attributes>
        </link>
        <link id="16" from="2" to="3" length="40.0" freespeed="44.444" capacity="9999.0" permlanes="1.0"
              modes="rail">
            <attributes>
                <attribute name="railsimResourceId" class="java.lang.String">switch_1</attribute>
                <attribute name="railsimResourceType" class="java.lang.String">fixedBlock</attribute>
                <attribute name="railsimNonBlockingArea" class="java.lang.Boolean">true</attribute>
                <attribute name="railsimMinimumTime" class="java.lang.Double">20.0</attribute>
                <attribute name="railsimTrainCapacity" class="java.lang.Integer">1</attribute>
            </attributes>
        </link>
        <link id="17" from="3" to="5" length="40.0" freespeed="44.444" capacity="9999.0" permlanes="1.0"
              modes="rail">
            <attributes>
                <attribute name="railsimResourceId" class="java.lang.String">switch_1</attribute>
                <attribute name="railsimResourceType" class="java.lang.String">fixedBlock</attribute>
                <attribute name="railsimNonBlockingArea" class="java.lang.Boolean">true</attribute>
                <attribute name="railsimMinimumTime" class="java.lang.Double">20.0</attribute>
                <attribute name="railsimTrainCapacity" class="java.lang.Integer">1</attribute>
            </attributes>
        </link>
        <link id="18" from="5" to="17" length="40.0" freespeed="44.444" capacity="9999.0" permlanes="1.0"
              modes="rail">
            <attributes>
                <attribute name="railsimResourceId" class="java.lang.String">switch_2</attribute>
                <attribute name="railsimResourceType" class="java.lang.String">fixedBlock</attribute>
                <attribute name="railsimNonBlockingArea" class="java.lang.Boolean">true</attribute>
                <attribute name="railsimMinimumTime" class="java.lang.Double">20.0</attribute>
                <attribute name="railsimTrainCapacity" class="java.lang.Integer">1</attribute>
            </attributes>
        </link>
        <link id="19" from="17" to="19" length="40.0" freespeed="44.444" capacity="9999.0" permlanes="1.0"
              modes="rail">
            <attributes>
                <attribute name="railsimResourceId" class="java.lang.String">switch_2</attribute>
                <attribute name="railsimResourceType" class="java.lang.String">fixedBlock</attribute>
                <attribute name="railsimNonBlockingArea" class="java.lang.Boolean">true</attribute>
                <attribute name="railsimMinimumTime" class="java.lang.Double">20.0</attribute>
                <attribute name="railsimTrainCapacity" class="java.lang.Integer">1</attribute>
            </attributes>
        </link>
        <link id="2" from="25a" to="1" length="40.0" freespeed="44.444" capacity="9999.0" permlanes="1.0"
              modes="rail">
            <attributes>
                <attribute name="railsimTrainCapacity" class="java.lang.Integer">1</attribute>
            </attributes>
        </link>
        <link id="20" from="3" to="4" length="64.0" freespeed="30.556" capacity="9999.0" permlanes="1.0"
              modes="rail">
            <attributes>
                <attribute name="railsimResourceId" class="java.lang.String">switch_1</attribute>
                <attribute name="railsimResourceType" class="java.lang.String">fixedBlock</attribute>
                <attribute name="railsimNonBlockingArea" class="java.lang.Boolean">true</attribute>
                <attribute name="railsimMinimumTime" class="java.lang.Double">20.0</attribute>
                <attribute name="railsimTrainCapacity" class="java.lang.Integer">1</attribute>
            </attributes>
        </link>
        <link id="21" from="4" to="13" length="64.0" freespeed="44.444" capacity="9999.0" permlanes="1.0"
              modes="rail">
            <attributes>
                <attribute name="railsimTrainCapacity" class="java.lang.Integer">1</attribute>
                <attribute name="railsimExit" class="java.lang.Boolean">true</attribute>
            </attributes>
        </link>
        <link id="3" from="1" to="2" length="120.0" freespeed="44.444" capacity="9999.0" permlanes="1.0"
              modes="rail">
            <attributes>
                <attribute name="railsimTrainCapacity" class="java.lang.Integer">1</attribute>
                <attribute name="railsimEntry" class="java.lang.Boolean">true</attribute>
            </attributes>
        </link>
        <link id="629" from="13" to="630" length="64.0" freespeed="44.444" capacity="9999.0" permlanes="1.0"
              modes="rail">
            <attributes>
                <attribute name="railsimTrainCapacity" class="java.lang.Integer">1</attribute>
            </attributes>
        </link>
        <link id="630" from="630" to="628a" length="5058.0" freespeed="44.444" capacity="9999.0" permlanes="1.0"
              modes="rail">
            <attributes>
                <attribute name="railsimTrainCapacity" class="java.lang.Integer">9999</attribute>
            </attributes>
        </link>
        <link id="631" from="633" to="26" length="1000.0" freespeed="44.444" capacity="9999.0" permlanes="1.0"
              modes="rail">
            <attributes>
                <attribute name="railsimTrainCapacity" class="java.lang.Integer">9999</attribute>
            </attributes>
        </link>
        <link id="632" from="629" to="631" length="768.0" freespeed="44.444" capacity="9999.0" permlanes="1.0"
              modes="rail">
            <attributes>
                <attribute name="railsimTrainCapacity" class="java.lang.Integer">9999</attribute>
            </attributes>
        </link>
        <link id="633" from="22" to="632" length="1000.0" freespeed="44.444" capacity="9999.0" permlanes="1.0"
              modes="rail">
            <attributes>
                <attribute name="railsimTrainCapacity" class="java.lang.Integer">9999</attribute>
            </attributes>
        </link>
        <link id="635" from="24" to="9" length="180.0" freespeed="44.444" capacity="9999.0" permlanes="1.0"
              modes="rail">
            <attributes>
                <attribute name="railsimTrainCapacity" class="java.lang.Integer">1</attribute>
                <attribute name="railsimEntry" class="java.lang.Boolean">true</attribute>
            </attributes>
        </link>
        <link id="636" from="23b" to="24" length="40.0" freespeed="44.444" capacity="9999.0" permlanes="1.0"
              modes="rail">
            <attributes>
                <attribute name="railsimTrainCapacity" class="java.lang.Integer">1</attribute>
            </attributes>
        </link>
        <link id="643" from="17" to="5" length="40.0" freespeed="44.444" capacity="9999.0" permlanes="1.0"
              modes="rail">
            <attributes>
                <attribute name="railsimResourceId" class="java.lang.String">switch_2</attribute>
                <attribute name="railsimResourceType" class="java.lang.String">fixedBlock</attribute>
                <attribute name="railsimNonBlockingArea" class="java.lang.Boolean">true</attribute>
                <attribute name="railsimMinimumTime" class="java.lang.Double">20.0</attribute>
                <attribute name="railsimTrainCapacity" class="java.lang.Integer">1</attribute>
            </attributes>
        </link>
        <link id="648" from="18" to="17" length="64.0" freespeed="30.556" capacity="9999.0" permlanes="1.0"
              modes="rail">
            <attributes>
                <attribute name="railsimResourceId" class="java.lang.String">switch_2</attribute>
                <attribute name="railsimResourceType" class="java.lang.String">fixedBlock</attribute>
                <attribute name="railsimNonBlockingArea" class="java.lang.Boolean">true</attribute>
                <attribute name="railsimMinimumTime" class="java.lang.Double">20.0</attribute>
                <attribute name="railsimTrainCapacity" class="java.lang.Integer">1</attribute>
            </attributes>
        </link>
        <link id="649" from="6" to="7" length="32.0" freespeed="30.556" capacity="9999.0" permlanes="1.0"
              modes="rail">
            <attributes>
                <attribute name="railsimResourceId" class="java.lang.String">switch_3</attribute>
                <attribute name="railsimResourceType" class="java.lang.String">fixedBlock</attribute>
                <attribute name="railsimNonBlockingArea" class="java.lang.Boolean">true</attribute>
                <attribute name="railsimMinimumTime" class="java.lang.Double">20.0</attribute>
                <attribute name="railsimTrainCapacity" class="java.lang.Integer">1</attribute>
            </attributes>
        </link>
        <link id="650" from="5" to="6" length="32.0" freespeed="30.556" capacity="9999.0" permlanes="1.0"
              modes="rail">
            <attributes>
                <attribute name="railsimResourceType" class="java.lang.String">fixedBlock</attribute>
                <attribute name="railsimNonBlockingArea" class="java.lang.Boolean">true</attribute>
                <attribute name="railsimTrainCapacity" class="java.lang.Integer">1</attribute>
            </attributes>
        </link>
        <link id="652" from="12" to="25b" length="40.0" freespeed="44.444" capacity="9999.0" permlanes="1.0"
              modes="rail">
            <attributes>
                <attribute name="railsimTrainCapacity" class="java.lang.Integer">1</attribute>
            </attributes>
        </link>
        <link id="653" from="11" to="12" length="40.0" freespeed="44.444" capacity="9999.0" permlanes="1.0"
              modes="rail">
            <attributes>
                <attribute name="railsimTrainCapacity" class="java.lang.Integer">1</attribute>
                <attribute name="railsimExit" class="java.lang.Boolean">true</attribute>
            </attributes>
        </link>
        <link id="654" from="10" to="11" length="40.0" freespeed="44.444" capacity="9999.0" permlanes="1.0"
              modes="rail">
            <attributes>
                <attribute name="railsimTrainCapacity" class="java.lang.Integer">1</attribute>
            </attributes>
        </link>
        <link id="655" from="625" to="18" length="64.0" freespeed="44.444" capacity="9999.0" permlanes="1.0"
              modes="rail">
            <attributes>
                <attribute name="railsimTrainCapacity" class="java.lang.Integer">1</attribute>
                <attribute name="railsimEntry" class="java.lang.Boolean">true</attribute>
            </attributes>
        </link>
        <link id="656" from="628b" to="625" length="64.0" freespeed="44.444" capacity="9999.0" permlanes="1.0"
              modes="rail">
            <attributes>
                <attribute name="railsimTrainCapacity" class="java.lang.Integer">1</attribute>
            </attributes>
        </link>
        <link id="660" from="26" to="633" length="1000.0" freespeed="44.444" capacity="9999.0" permlanes="1.0"
              modes="rail">
            <attributes>
                <attribute name="railsimTrainCapacity" class="java.lang.Integer">9999</attribute>
            </attributes>
        </link>
        <link id="661" from="631" to="629" length="768.0" freespeed="44.444" capacity="9999.0" permlanes="1.0"
              modes="rail">
            <attributes>
                <attribute name="railsimTrainCapacity" class="java.lang.Integer">9999</attribute>
            </attributes>
        </link>
        <link id="662" from="632" to="22" length="1000.0" freespeed="44.444" capacity="9999.0" permlanes="1.0"
              modes="rail">
            <attributes>
                <attribute name="railsimTrainCapacity" class="java.lang.Integer">9999</attribute>
            </attributes>
        </link>
        <link id="663" from="8" to="10" length="40.0" freespeed="44.444" capacity="9999.0" permlanes="1.0"
              modes="rail">
            <attributes>
                <attribute name="railsimTrainCapacity" class="java.lang.Integer">1</attribute>
            </attributes>
        </link>
        <link id="664" from="7" to="8" length="40.0" freespeed="44.444" capacity="9999.0" permlanes="1.0"
              modes="rail">
            <attributes>
                <attribute name="railsimResourceId" class="java.lang.String">switch_3</attribute>
                <attribute name="railsimResourceType" class="java.lang.String">fixedBlock</attribute>
                <attribute name="railsimNonBlockingArea" class="java.lang.Boolean">true</attribute>
                <attribute name="railsimMinimumTime" class="java.lang.Double">20.0</attribute>
                <attribute name="railsimTrainCapacity" class="java.lang.Integer">1</attribute>
            </attributes>
        </link>
        <link id="665" from="9" to="7" length="40.0" freespeed="44.444" capacity="9999.0" permlanes="1.0"
              modes="rail">
            <attributes>
                <attribute name="railsimResourceId" class="java.lang.String">switch_3</attribute>
                <attribute name="railsimResourceType" class="java.lang.String">fixedBlock</attribute>
                <attribute name="railsimNonBlockingArea" class="java.lang.Boolean">true</attribute>
                <attribute name="railsimMinimumTime" class="java.lang.Double">20.0</attribute>
                <attribute name="railsimTrainCapacity" class="java.lang.Integer">1</attribute>
            </attributes>
        </link>
        <link id="679" from="638b" to="628b" length="5058.0" freespeed="44.444" capacity="1000.0" permlanes="1.0"
              modes="rail">
            <attributes>
                <attribute name="railsimEntry" class="java.lang.Boolean">false</attribute>
                <attribute name="railsimTrainCapacity" class="java.lang.Integer">9999</attribute>
            </attributes>
        </link>
        <link id="680" from="628a" to="629" length="40.0" freespeed="44.444" capacity="1000.0" permlanes="1.0"
              modes="rail">
            <attributes>
                <attribute name="railsimTrainCapacity" class="java.lang.Integer">9999</attribute>
            </attributes>
        </link>
        <link id="681" from="629" to="638b" length="40.0" freespeed="44.444" capacity="1000.0" permlanes="1.0"
              modes="rail">
            <attributes>
                <attribute name="railsimTrainCapacity" class="java.lang.Integer">9999</attribute>
            </attributes>
        </link>
        <link id="682" from="637a" to="25a" length="9600.0" freespeed="44.444" capacity="1000.0" permlanes="1.0"
              modes="rail">
            <attributes>
                <attribute name="railsimEntry" class="java.lang.Boolean">false</attribute>
                <attribute name="railsimTrainCapacity" class="java.lang.Integer">9999</attribute>
            </attributes>
        </link>
        <link id="683" from="25b" to="637b" length="9600.0" freespeed="44.444" capacity="1000.0" permlanes="1.0"
              modes="rail">
            <attributes>
                <attribute name="railsimTrainCapacity" class="java.lang.Integer">9999</attribute>
            </attributes>
        </link>
        <link id="684" from="23a" to="639a" length="9940.0" freespeed="44.444" capacity="1000.0" permlanes="1.0"
              modes="rail">
            <attributes>
                <attribute name="railsimTrainCapacity" class="java.lang.Integer">9999</attribute>
            </attributes>
        </link>
        <link id="685" from="639b" to="23b" length="9940.0" freespeed="44.444" capacity="1000.0" permlanes="1.0"
              modes="rail">
            <attributes>
                <attribute name="railsimEntry" class="java.lang.Boolean">false</attribute>
                <attribute name="railsimTrainCapacity" class="java.lang.Integer">9999</attribute>
            </attributes>
        </link>
        <link id="686" from="639a" to="22" length="25.0" freespeed="44.444" capacity="1000.0" permlanes="1.0"
              modes="rail">
            <attributes>
                <attribute name="railsimTrainCapacity" class="java.lang.Integer">9999</attribute>
            </attributes>
        </link>
        <link id="687" from="26" to="637a" length="25.0" freespeed="44.444" capacity="1000.0" permlanes="1.0"
              modes="rail">
            <attributes>
                <attribute name="railsimTrainCapacity" class="java.lang.Integer">9999</attribute>
            </attributes>
        </link>
        <link id="688" from="637b" to="26" length="25.0" freespeed="44.444" capacity="1000.0" permlanes="1.0"
              modes="rail">
            <attributes>
                <attribute name="railsimTrainCapacity" class="java.lang.Integer">9999</attribute>
            </attributes>
        </link>
        <link id="689" from="22" to="639b" length="25.0" freespeed="44.444" capacity="1000.0" permlanes="1.0"
              modes="rail">
            <attributes>
                <attribute name="railsimTrainCapacity" class="java.lang.Integer">9999</attribute>
            </attributes>
        </link>
        <link id="stop_loop_631" from="631" to="631" length="1.0" freespeed="44.444" capacity="9999.0" permlanes="1.0"
              modes="rail">
            <attributes>
                <attribute name="railsimTrainCapacity" class="java.lang.Integer">9999</attribute>
            </attributes>
        </link>
        <link id="stop_loop_632" from="632" to="632" length="1.0" freespeed="44.444" capacity="9999.0" permlanes="1.0"
              modes="rail">
            <attributes>
                <attribute name="railsimTrainCapacity" class="java.lang.Integer">9999</attribute>
            </attributes>
        </link>
        <link id="stop_loop_633" from="633" to="633" length="1.0" freespeed="44.444" capacity="9999.0" permlanes="1.0"
              modes="rail">
            <attributes>
                <attribute name="railsimTrainCapacity" class="java.lang.Integer">9999</attribute>
            </attributes>
        </link>
    </links>

</network>
