<?xml version="1.0" encoding="UTF-8"?>
<!DOCTYPE network SYSTEM "http://www.matsim.org/files/dtd/network_v2.dtd">
<network>

    <nodes>
        <node id="1" x="-10000.0" y="0.0">
        </node>
        <node id="2" x="0.0" y="0.0">
        </node>
        <node id="3" x="500.0" y="0.0">
        </node>
        <node id="4" x="9500.0" y="0.0">
        </node>
    </nodes>

    <links>
        <link id="stop_loop_L" from="1" to="1" length="1.0" freespeed="44.444" capacity="9999.0" permlanes="1.0"
              oneway="1" modes="rail">
            <attributes>
                <attribute name="railsimTrainCapacity" class="java.lang.Integer">999</attribute>
            </attributes>
        </link>
        <link id="1" from="1" to="2" length="10000.0" freespeed="44.444" capacity="9999.0" permlanes="1.0" oneway="1"
              modes="rail">
            <attributes>
                <attribute name="railsimTrainCapacity" class="java.lang.Integer">999</attribute>
            </attributes>
        </link>
        <link id="2" from="2" to="3" length="500.0" freespeed="44.444" capacity="9999.0" permlanes="1.0" oneway="1"
              modes="rail">
            <attributes>
                <attribute name="railsimEntry" class="java.lang.Boolean">true</attribute>
                <attribute name="railsimTrainCapacity" class="java.lang.Integer">1</attribute>
            </attributes>
        </link>
        <link id="3" from="3" to="4" length="9500.0" freespeed="44.444" capacity="9999.0" permlanes="1.0" oneway="1"
              modes="rail">
            <attributes>
                <attribute name="railsimExit" class="java.lang.Boolean">true</attribute>
                <attribute name="railsimTrainCapacity" class="java.lang.Integer">999</attribute>
            </attributes>
        </link>
        <link id="stop_loop_R" from="4" to="4" length="1.0" freespeed="44.444" capacity="9999.0" permlanes="1.0"
              oneway="1" modes="rail">
            <attributes>
                <attribute name="railsimTrainCapacity" class="java.lang.Integer">999</attribute>
            </attributes>
        </link>
    </links>

</network>
