<?xml version="1.0" encoding="UTF-8"?>
<!DOCTYPE network SYSTEM "http://www.matsim.org/files/dtd/network_v2.dtd">
<network>

    <!-- ====================================================================== -->

    <nodes>
        <node id="1" x="-510.0" y="0.0">
        </node>
        <node id="10" x="-10700.0" y="0.0">
        </node>
        <node id="11" x="-11200.0" y="0.0">
        </node>
        <node id="12" x="10730.0" y="0.0">
        </node>
        <node id="2" x="-470.0" y="0.0">
        </node>
        <node id="4" x="0.0" y="0.0">
        </node>
        <node id="6" x="40.0" y="0.0">
        </node>
        <node id="7" x="-550.0" y="0.0">
        </node>
        <node id="8" x="80.0" y="0.0">
        </node>
        <node id="9" x="10230.0" y="0.0">
        </node>
    </nodes>

    <!-- ====================================================================== -->

    <links>
        <link id="1" from="1" to="2" length="130.0" freespeed="44.444" capacity="9999.0" permlanes="1.0" oneway="1"
              modes="rail">
            <attributes>
                <attribute name="railsimTrainCapacity" class="java.lang.Integer">1</attribute>
            </attributes>
        </link>
        <link id="11" from="6" to="8" length="100.0" freespeed="44.444" capacity="9999.0" permlanes="1.0" oneway="1"
              modes="rail">
            <attributes>
                <attribute name="railsimExit" class="java.lang.Boolean">true</attribute>
                <attribute name="railsimTrainCapacity" class="java.lang.Integer">1</attribute>
            </attributes>
        </link>
        <link id="13" from="8" to="9" length="10000.0" freespeed="44.444" capacity="9999.0" permlanes="1.0" oneway="1"
              modes="rail">
            <attributes>
                <attribute name="railsimTrainCapacity" class="java.lang.Integer">999</attribute>
            </attributes>
        </link>
        <link id="15" from="11" to="10" length="500.0" freespeed="44.444" capacity="9999.0" permlanes="1.0" oneway="1"
              modes="rail">
            <attributes>
                <attribute name="railsimTrainCapacity" class="java.lang.Integer">999</attribute>
            </attributes>
        </link>
        <link id="17" from="9" to="12" length="500.0" freespeed="44.444" capacity="9999.0" permlanes="1.0" oneway="1"
              modes="rail">
            <attributes>
                <attribute name="railsimTrainCapacity" class="java.lang.Integer">999</attribute>
            </attributes>
        </link>
        <link id="3" from="2" to="4" length="470.0" freespeed="44.444" capacity="9999.0" permlanes="1.0" oneway="1"
              modes="rail">
            <attributes>
                <attribute name="railsimTrainCapacity" class="java.lang.Integer">1</attribute>
            </attributes>
        </link>
        <link id="5" from="4" to="6" length="130.0" freespeed="44.444" capacity="9999.0" permlanes="1.0" oneway="1"
              modes="rail">
            <attributes>
                <attribute name="railsimTrainCapacity" class="java.lang.Integer">1</attribute>
            </attributes>
        </link>
        <link id="7" from="10" to="7" length="10000.0" freespeed="44.444" capacity="9999.0" permlanes="1.0" oneway="1"
              modes="rail">
            <attributes>
                <attribute name="railsimTrainCapacity" class="java.lang.Integer">999</attribute>
            </attributes>
        </link>
        <link id="9" from="7" to="1" length="100.0" freespeed="44.444" capacity="9999.0" permlanes="1.0" oneway="1"
              modes="rail">
            <attributes>
                <attribute name="railsimEntry" class="java.lang.Boolean">true</attribute>
                <attribute name="railsimTrainCapacity" class="java.lang.Integer">1</attribute>
            </attributes>
        </link>
        <link id="stop_loop_10" from="10" to="10" length="1.0" freespeed="44.444" capacity="9999.0" permlanes="1.0"
              oneway="1" modes="rail">
            <attributes>
                <attribute name="railsimTrainCapacity" class="java.lang.Integer">999</attribute>
            </attributes>
        </link>
        <link id="stop_loop_12" from="12" to="12" length="1.0" freespeed="44.444" capacity="9999.0" permlanes="1.0"
              oneway="1" modes="rail">
            <attributes>
                <attribute name="railsimTrainCapacity" class="java.lang.Integer">999</attribute>
            </attributes>
        </link>
    </links>

    <!-- ====================================================================== -->

</network>
