<?xml version="1.0" encoding="UTF-8"?>
<!DOCTYPE network SYSTEM "http://www.matsim.org/files/dtd/network_v2.dtd">
<network>

    <!-- ====================================================================== -->

    <nodes>
        <node id="n01" x="-11000.0" y="250.0">
        </node>
        <node id="n02_1" x="-10000.0" y="225.0">
        </node>
        <node id="n02_2" x="-10000.0" y="250.0">
        </node>
        <node id="n02_3" x="-10000.0" y="275.0">
        </node>
        <node id="n03_1" x="-860.0" y="225.0">
        </node>
        <node id="n03_2" x="-860.0" y="275.0">
        </node>
        <node id="n04_1" x="-360.0" y="225.0">
        </node>
        <node id="n04_2" x="-360.0" y="275.0">
        </node>
        <node id="n05" x="-320.0" y="225.0">
        </node>
        <node id="n06" x="-280.0" y="225.0">
        </node>
        <node id="n07_1" x="-240.0" y="175.0">
        </node>
        <node id="n07_2" x="-240.0" y="225.0">
        </node>
        <node id="n07_3" x="-240.0" y="275.0">
        </node>
        <node id="n08_1" x="-200.0" y="175.0">
        </node>
        <node id="n08_2" x="-200.0" y="225.0">
        </node>
        <node id="n08_3" x="-200.0" y="275.0">
        </node>
        <node id="n09_1" x="-160.0" y="225.0">
        </node>
        <node id="n09_2" x="-160.0" y="275.0">
        </node>
        <node id="n09_3" x="-160.0" y="325.0">
        </node>
        <node id="n10_1" x="-120.0" y="275.0">
        </node>
        <node id="n10_2" x="-120.0" y="375.0">
        </node>
        <node id="n11_1" x="-80.0" y="275.0">
        </node>
        <node id="n11_2" x="-80.0" y="325.0">
        </node>
        <node id="n12_1" x="-40.0" y="275.0">
        </node>
        <node id="n12_2" x="-40.0" y="375.0">
        </node>
        <node id="n13_1" x="20.0" y="225.0">
        </node>
        <node id="n13_2" x="20.0" y="275.0">
        </node>
        <node id="n14" x="200.0" y="775.0">
        </node>
        <node id="n15" x="280.0" y="775.0">
        </node>
        <node id="n16_1" x="520.0" y="225.0">
        </node>
        <node id="n16_2" x="520.0" y="275.0">
        </node>
        <node id="n17" x="3080.0" y="4375.0">
        </node>
        <node id="n18" x="3120.0" y="4375.0">
        </node>
        <node id="n19" x="3160.0" y="4375.0">
        </node>
        <node id="n20" x="3600.0" y="4975.0">
        </node>
        <node id="n21_1" x="10000.0" y="225.0">
        </node>
        <node id="n21_2" x="10000.0" y="250.0">
        </node>
        <node id="n21_3" x="10000.0" y="275.0">
        </node>
        <node id="n22" x="11000.0" y="250.0">
        </node>
    </nodes>

    <!-- ====================================================================== -->

    <links capperiod="01:00:00" effectivecellsize="7.5" effectivelanewidth="3.75">
        <link id="f01" from="n01" to="n02_2" length="1000.0" freespeed="44.444" capacity="9999.0" permlanes="1.0"
              oneway="1" modes="rail">
            <attributes>
                <attribute name="railsimTrainCapacity" class="java.lang.Integer">9999</attribute>
            </attributes>
        </link>
        <link id="f02" from="n02_3" to="n03_2" length="9140.0" freespeed="44.444" capacity="1000.0" permlanes="1.0"
              oneway="1" modes="rail">
            <attributes>
                <attribute name="railsimEntry" class="java.lang.Boolean">false</attribute>
                <attribute name="railsimTrainCapacity" class="java.lang.Integer">9999</attribute>
            </attributes>
        </link>
        <link id="f03" from="n03_2" to="n04_2" length="500.0" freespeed="44.444" capacity="9999.0" permlanes="1.0"
              oneway="1" modes="rail">
            <attributes>
                <attribute name="railsimMinimumTime" class="java.lang.Double">20.0</attribute>
                <attribute name="railsimResourceId" class="java.lang.String">block_a_forward</attribute>
                <attribute name="railsimResourceType" class="java.lang.String">fixedBlock</attribute>
                <attribute name="railsimTrainCapacity" class="java.lang.Integer">1</attribute>
            </attributes>
        </link>
        <link id="f04" from="n04_2" to="n07_3" length="120.0" freespeed="44.444" capacity="9999.0" permlanes="1.0"
              oneway="1" modes="rail">
            <attributes>
                <attribute name="railsimEntry" class="java.lang.Boolean">true</attribute>
                <attribute name="railsimTrainCapacity" class="java.lang.Integer">1</attribute>
                <attribute name="railsimUtilizationMonitor" class="java.lang.Boolean">true</attribute>
            </attributes>
        </link>
        <link id="f05" from="n07_3" to="n08_3" length="40.0" freespeed="44.444" capacity="9999.0" permlanes="1.0"
              oneway="1" modes="rail">
            <attributes>
                <attribute name="railsimMinimumTime" class="java.lang.Double">20.0</attribute>
                <attribute name="railsimNonBlockingArea" class="java.lang.Boolean">true</attribute>
                <attribute name="railsimResourceId" class="java.lang.String">switch_1</attribute>
                <attribute name="railsimResourceType" class="java.lang.String">fixedBlock</attribute>
                <attribute name="railsimTrainCapacity" class="java.lang.Integer">1</attribute>
            </attributes>
        </link>
        <link id="f06" from="n08_3" to="n09_3" length="64.0" freespeed="30.556" capacity="9999.0" permlanes="1.0"
              oneway="1" modes="rail">
            <attributes>
                <attribute name="railsimMinimumTime" class="java.lang.Double">20.0</attribute>
                <attribute name="railsimNonBlockingArea" class="java.lang.Boolean">true</attribute>
                <attribute name="railsimResourceId" class="java.lang.String">switch_1</attribute>
                <attribute name="railsimResourceType" class="java.lang.String">fixedBlock</attribute>
                <attribute name="railsimTrainCapacity" class="java.lang.Integer">1</attribute>
            </attributes>
        </link>
        <link id="f07" from="n08_3" to="n09_2" length="40.0" freespeed="44.444" capacity="9999.0" permlanes="1.0"
              oneway="1" modes="rail">
            <attributes>
                <attribute name="railsimMinimumTime" class="java.lang.Double">20.0</attribute>
                <attribute name="railsimNonBlockingArea" class="java.lang.Boolean">true</attribute>
                <attribute name="railsimResourceId" class="java.lang.String">switch_1</attribute>
                <attribute name="railsimResourceType" class="java.lang.String">fixedBlock</attribute>
                <attribute name="railsimTrainCapacity" class="java.lang.Integer">1</attribute>
            </attributes>
        </link>
        <link id="f08" from="n09_2" to="n10_1" length="40.0" freespeed="44.444" capacity="9999.0" permlanes="1.0"
              oneway="1" modes="rail">
            <attributes>
                <attribute name="railsimTrainCapacity" class="java.lang.Integer">1</attribute>
            </attributes>
        </link>
        <link id="f09" from="n09_3" to="n10_2" length="64.0" freespeed="44.444" capacity="9999.0" permlanes="1.0"
              oneway="1" modes="rail">
            <attributes>
                <attribute name="railsimExit" class="java.lang.Boolean">false</attribute>
                <attribute name="railsimTrainCapacity" class="java.lang.Integer">1</attribute>
            </attributes>
        </link>
        <link id="f10" from="n10_1" to="n11_1" length="40.0" freespeed="44.444" capacity="9999.0" permlanes="1.0"
              oneway="1" modes="rail">
            <attributes>
                <attribute name="railsimTrainCapacity" class="java.lang.Integer">1</attribute>
            </attributes>
        </link>
        <link id="f11" from="n10_2" to="n14" length="512.0" freespeed="44.444" capacity="9999.0" permlanes="1.0"
              oneway="1" modes="rail">
            <attributes>
                <attribute name="railsimMinimumTime" class="java.lang.Double">20.0</attribute>
                <attribute name="railsimResourceId" class="java.lang.String">block_c_forward</attribute>
                <attribute name="railsimResourceType" class="java.lang.String">fixedBlock</attribute>
                <attribute name="railsimTrainCapacity" class="java.lang.Integer">1</attribute>
            </attributes>
        </link>
        <link id="f12" from="n11_1" to="n12_1" length="40.0" freespeed="44.444" capacity="9999.0" permlanes="1.0"
              oneway="1" modes="rail">
            <attributes>
                <attribute name="railsimTrainCapacity" class="java.lang.Integer">1</attribute>
            </attributes>
        </link>
        <link id="f13" from="n12_1" to="n13_2" length="60.0" freespeed="44.444" capacity="9999.0" permlanes="1.0"
              oneway="1" modes="rail">
            <attributes>
                <attribute name="railsimExit" class="java.lang.Boolean">false</attribute>
                <attribute name="railsimTrainCapacity" class="java.lang.Integer">1</attribute>
            </attributes>
        </link>
        <link id="f14" from="n13_2" to="n16_2" length="500.0" freespeed="44.444" capacity="9999.0" permlanes="1.0"
              oneway="1" modes="rail">
            <attributes>
                <attribute name="railsimMinimumTime" class="java.lang.Double">20.0</attribute>
                <attribute name="railsimResourceId" class="java.lang.String">block_b_forward</attribute>
                <attribute name="railsimResourceType" class="java.lang.String">fixedBlock</attribute>
                <attribute name="railsimTrainCapacity" class="java.lang.Integer">1</attribute>
            </attributes>
        </link>
        <link id="f15" from="n14" to="n17" length="4610.0" freespeed="44.444" capacity="9999.0" permlanes="1.0"
              oneway="1" modes="rail">
            <attributes>
                <attribute name="railsimTrainCapacity" class="java.lang.Integer">9999</attribute>
            </attributes>
        </link>
        <link id="f16" from="n16_2" to="n21_3" length="9480.0" freespeed="44.444" capacity="1000.0" permlanes="1.0"
              oneway="1" modes="rail">
            <attributes>
                <attribute name="railsimTrainCapacity" class="java.lang.Integer">9999</attribute>
            </attributes>
        </link>
        <link id="f17" from="n17" to="n18" length="40.0" freespeed="44.444" capacity="1000.0" permlanes="1.0" oneway="1"
              modes="rail">
            <attributes>
                <attribute name="railsimTrainCapacity" class="java.lang.Integer">9999</attribute>
            </attributes>
        </link>
        <link id="f18" from="n18" to="n20" length="768.0" freespeed="44.444" capacity="9999.0" permlanes="1.0"
              oneway="1" modes="rail">
            <attributes>
                <attribute name="railsimTrainCapacity" class="java.lang.Integer">9999</attribute>
            </attributes>
        </link>
        <link id="f19" from="n18" to="n19" length="40.0" freespeed="44.444" capacity="1000.0" permlanes="1.0" oneway="1"
              modes="rail">
            <attributes>
                <attribute name="railsimTrainCapacity" class="java.lang.Integer">9999</attribute>
            </attributes>
        </link>
        <link id="f20" from="n21_2" to="n22" length="1000.0" freespeed="44.444" capacity="9999.0" permlanes="1.0"
              oneway="1" modes="rail">
            <attributes>
                <attribute name="railsimTrainCapacity" class="java.lang.Integer">9999</attribute>
            </attributes>
        </link>
        <link id="loop01" from="n01" to="n01" length="1.0" freespeed="44.444" capacity="9999.0" permlanes="1.0"
              oneway="1" modes="rail">
            <attributes>
                <attribute name="railsimTrainCapacity" class="java.lang.Integer">9999</attribute>
            </attributes>
        </link>
        <link id="loop02" from="n20" to="n20" length="1.0" freespeed="44.444" capacity="9999.0" permlanes="1.0"
              oneway="1" modes="rail">
            <attributes>
                <attribute name="railsimTrainCapacity" class="java.lang.Integer">9999</attribute>
            </attributes>
        </link>
        <link id="loop03" from="n22" to="n22" length="1.0" freespeed="44.444" capacity="9999.0" permlanes="1.0"
              oneway="1" modes="rail">
            <attributes>
                <attribute name="railsimTrainCapacity" class="java.lang.Integer">9999</attribute>
            </attributes>
        </link>
        <link id="r01" from="n22" to="n21_2" length="1000.0" freespeed="44.444" capacity="9999.0" permlanes="1.0"
              oneway="1" modes="rail">
            <attributes>
                <attribute name="railsimTrainCapacity" class="java.lang.Integer">9999</attribute>
            </attributes>
        </link>
        <link id="r02" from="n21_1" to="n16_1" length="9480.0" freespeed="44.444" capacity="1000.0" permlanes="1.0"
              oneway="1" modes="rail">
            <attributes>
                <attribute name="railsimEntry" class="java.lang.Boolean">false</attribute>
                <attribute name="railsimTrainCapacity" class="java.lang.Integer">9999</attribute>
            </attributes>
        </link>
        <link id="r03" from="n20" to="n18" length="768.0" freespeed="44.444" capacity="9999.0" permlanes="1.0"
              oneway="1" modes="rail">
            <attributes>
                <attribute name="railsimTrainCapacity" class="java.lang.Integer">9999</attribute>
            </attributes>
        </link>
        <link id="r04" from="n19" to="n15" length="4610.0" freespeed="44.444" capacity="1000.0" permlanes="1.0"
              oneway="1" modes="rail">
            <attributes>
                <attribute name="railsimEntry" class="java.lang.Boolean">false</attribute>
                <attribute name="railsimTrainCapacity" class="java.lang.Integer">9999</attribute>
            </attributes>
        </link>
        <link id="r05" from="n16_1" to="n13_1" length="500.0" freespeed="44.444" capacity="9999.0" permlanes="1.0"
              oneway="1" modes="rail">
            <attributes>
                <attribute name="railsimMinimumTime" class="java.lang.Double">20.0</attribute>
                <attribute name="railsimResourceId" class="java.lang.String">block_b_reverse</attribute>
                <attribute name="railsimResourceType" class="java.lang.String">fixedBlock</attribute>
                <attribute name="railsimTrainCapacity" class="java.lang.Integer">1</attribute>
            </attributes>
        </link>
        <link id="r06" from="n15" to="n12_2" length="512.0" freespeed="44.444" capacity="9999.0" permlanes="1.0"
              oneway="1" modes="rail">
            <attributes>
                <attribute name="railsimMinimumTime" class="java.lang.Double">20.0</attribute>
                <attribute name="railsimResourceId" class="java.lang.String">block_c_reverse</attribute>
                <attribute name="railsimResourceType" class="java.lang.String">fixedBlock</attribute>
                <attribute name="railsimTrainCapacity" class="java.lang.Integer">1</attribute>
            </attributes>
        </link>
        <link id="r07" from="n13_1" to="n09_1" length="180.0" freespeed="44.444" capacity="9999.0" permlanes="1.0"
              oneway="1" modes="rail">
            <attributes>
                <attribute name="railsimEntry" class="java.lang.Boolean">true</attribute>
                <attribute name="railsimTrainCapacity" class="java.lang.Integer">1</attribute>
            </attributes>
        </link>
        <link id="r08" from="n12_2" to="n11_2" length="64.0" freespeed="44.444" capacity="9999.0" permlanes="1.0"
              oneway="1" modes="rail">
            <attributes>
                <attribute name="railsimEntry" class="java.lang.Boolean">true</attribute>
                <attribute name="railsimTrainCapacity" class="java.lang.Integer">1</attribute>
            </attributes>
        </link>
        <link id="r09" from="n11_2" to="n08_1" length="192.0" freespeed="44.444" capacity="1000.0" permlanes="1.0"
              oneway="1" modes="rail">
            <attributes>
                <attribute name="railsimTrainCapacity" class="java.lang.Integer">1</attribute>
            </attributes>
        </link>
        <link id="r10" from="n09_1" to="n08_2" length="40.0" freespeed="44.444" capacity="9999.0" permlanes="1.0"
              oneway="1" modes="rail">
            <attributes>
                <attribute name="railsimTrainCapacity" class="java.lang.Integer">1</attribute>
            </attributes>
        </link>
        <link id="r11" from="n08_2" to="n07_2" length="40.0" freespeed="44.444" capacity="9999.0" permlanes="1.0"
              oneway="1" modes="rail">
            <attributes>
                <attribute name="railsimTrainCapacity" class="java.lang.Integer">1</attribute>
            </attributes>
        </link>
        <link id="r12" from="n08_1" to="n07_1" length="40.0" freespeed="44.444" capacity="1000.0" permlanes="1.0"
              oneway="1" modes="rail">
            <attributes>
                <attribute name="railsimTrainCapacity" class="java.lang.Integer">1</attribute>
            </attributes>
        </link>
        <link id="r13" from="n07_2" to="n06" length="40.0" freespeed="44.444" capacity="9999.0" permlanes="1.0"
              oneway="1" modes="rail">
            <attributes>
                <attribute name="railsimMinimumTime" class="java.lang.Double">20.0</attribute>
                <attribute name="railsimNonBlockingArea" class="java.lang.Boolean">true</attribute>
                <attribute name="railsimResourceId" class="java.lang.String">switch_2</attribute>
                <attribute name="railsimResourceType" class="java.lang.String">fixedBlock</attribute>
                <attribute name="railsimTrainCapacity" class="java.lang.Integer">1</attribute>
            </attributes>
        </link>
        <link id="r14" from="n07_1" to="n06" length="64.0" freespeed="30.556" capacity="1000.0" permlanes="1.0"
              oneway="1" modes="rail">
            <attributes>
                <attribute name="railsimMinimumTime" class="java.lang.Double">20.0</attribute>
                <attribute name="railsimNonBlockingArea" class="java.lang.Boolean">true</attribute>
                <attribute name="railsimResourceId" class="java.lang.String">switch_2</attribute>
                <attribute name="railsimResourceType" class="java.lang.String">fixedBlock</attribute>
                <attribute name="railsimTrainCapacity" class="java.lang.Integer">1</attribute>
            </attributes>
        </link>
        <link id="r15" from="n06" to="n05" length="40.0" freespeed="44.444" capacity="9999.0" permlanes="1.0" oneway="1"
              modes="rail">
            <attributes>
                <attribute name="railsimMinimumTime" class="java.lang.Double">20.0</attribute>
                <attribute name="railsimNonBlockingArea" class="java.lang.Boolean">true</attribute>
                <attribute name="railsimResourceId" class="java.lang.String">switch_2</attribute>
                <attribute name="railsimResourceType" class="java.lang.String">fixedBlock</attribute>
                <attribute name="railsimTrainCapacity" class="java.lang.Integer">1</attribute>
            </attributes>
        </link>
        <link id="r16" from="n05" to="n04_1" length="40.0" freespeed="44.444" capacity="9999.0" permlanes="1.0"
              oneway="1" modes="rail">
            <attributes>
                <attribute name="railsimExit" class="java.lang.Boolean">false</attribute>
                <attribute name="railsimTrainCapacity" class="java.lang.Integer">1</attribute>
                <attribute name="railsimUtilizationMonitor" class="java.lang.Boolean">true</attribute>
            </attributes>
        </link>
        <link id="r17" from="n04_1" to="n03_1" length="500.0" freespeed="44.444" capacity="9999.0" permlanes="1.0"
              oneway="1" modes="rail">
            <attributes>
                <attribute name="railsimMinimumTime" class="java.lang.Double">20.0</attribute>
                <attribute name="railsimResourceId" class="java.lang.String">block_a_reverse</attribute>
                <attribute name="railsimResourceType" class="java.lang.String">fixedBlock</attribute>
                <attribute name="railsimTrainCapacity" class="java.lang.Integer">1</attribute>
            </attributes>
        </link>
        <link id="r18" from="n03_1" to="n02_1" length="9140.0" freespeed="44.444" capacity="1000.0" permlanes="1.0"
              oneway="1" modes="rail">
            <attributes>
                <attribute name="railsimTrainCapacity" class="java.lang.Integer">9999</attribute>
            </attributes>
        </link>
        <link id="r19" from="n02_2" to="n01" length="1000.0" freespeed="44.444" capacity="9999.0" permlanes="1.0"
              oneway="1" modes="rail">
            <attributes>
                <attribute name="railsimTrainCapacity" class="java.lang.Integer">9999</attribute>
            </attributes>
        </link>
        <link id="v01" from="n02_1" to="n02_2" length="25.0" freespeed="44.444" capacity="1000.0" permlanes="1.0"
              oneway="1" modes="rail">
            <attributes>
                <attribute name="railsimTrainCapacity" class="java.lang.Integer">9999</attribute>
            </attributes>
        </link>
        <link id="v02" from="n02_2" to="n02_3" length="25.0" freespeed="44.444" capacity="1000.0" permlanes="1.0"
              oneway="1" modes="rail">
            <attributes>
                <attribute name="railsimTrainCapacity" class="java.lang.Integer">9999</attribute>
            </attributes>
        </link>
        <link id="v03" from="n21_2" to="n21_1" length="25.0" freespeed="44.444" capacity="1000.0" permlanes="1.0"
              oneway="1" modes="rail">
            <attributes>
                <attribute name="railsimTrainCapacity" class="java.lang.Integer">9999</attribute>
            </attributes>
        </link>
        <link id="v04" from="n21_3" to="n21_2" length="25.0" freespeed="44.444" capacity="1000.0" permlanes="1.0"
              oneway="1" modes="rail">
            <attributes>
                <attribute name="railsimTrainCapacity" class="java.lang.Integer">9999</attribute>
            </attributes>
        </link>
    </links>

    <!-- ====================================================================== -->

</network>
